test/data/ieee13/IEEE13_Arnold_2016.dss
! This configuration file has been modified from the original IEEE13 model to match values used in
! the 2016 paper by Arnold et al. (using CSVs in https://github.com/msankur/LinDist3Flow/tree/master/IEEE%20PES%202016/matlab/feeder13)

new circuit.IEEE13Nodeckt 
~ basekv=4.16 pu=1.000 phases=3 bus1=RG60


!TRANSFORMER DEFINITION (nlaws: replaced with a line. parsing will raise an error if you include this xfmr because it is a redundant edge)
!New Transformer.XFM1  Phases=3   Windings=2  XHL=2
!~ wdg=1 bus=633       conn=Wye kv=4.16    kva=500    %r=.55     XHT=1
!~ wdg=2 bus=634       conn=Wye kv=0.480    kva=500    %r=.55   XLT=1


// these are local matrix line codes
// corrected 9-14-2011
New linecode.mtx601 nphases=3 BaseFreq=60 
~ rmatrix = (0.3465 | 0.1560 0.3375 | 0.1580 0.1535 0.3414 ) 
~ xmatrix = (1.0179 | 0.5017 1.0478 | 0.4236 0.3849 1.0348 ) 
~ units=mi 
New linecode.mtx602 nphases=3 BaseFreq=60 
~ rmatrix = (0.7526 | 0.1580 0.7475 | 0.1560 0.1535 0.7436 ) 
~ xmatrix = (1.1814 | 0.4236 1.1983 | 0.5017 0.3849 1.2112 ) 
~ units=mi 
New linecode.mtx603 nphases=2 BaseFreq=60 
~ rmatrix = (1.3294 | 0.2066 1.3238) 
~ xmatrix = (1.3471 | 0.4591 1.3569) 
~ units=mi 
New linecode.mtx604 nphases=2 BaseFreq=60 
~ rmatrix = (1.3238 | 0.2066 1.3294 ) 
~ xmatrix = (1.3569 | 0.4591 1.3471 ) 
~ units=mi 
New linecode.mtx605 nphases=1 BaseFreq=60 
~ rmatrix = (1.3292 ) 
~ xmatrix = (1.3475 ) 
~ units=mi 
New linecode.mtx606 nphases=3 BaseFreq=60 
~ rmatrix = (0.7982 | 0.3192 0.7891 | 0.2849 0.3192 0.7982 ) 
~ xmatrix = (0.4463 | 0.0328 0.4041 | -0.0143 0.0328 0.4463 ) 
~ units=mi 
New linecode.mtx607 nphases=1 BaseFreq=60 
~ rmatrix = (1.3425 ) 
~ xmatrix = (0.5124 )
~ units=mi 


!LOAD DEFINITIONS bus 675 has capacitors on all three phases, bus 611 has cap on phase 3
New Load.671  Bus1=671.1.2.3 Phases=3 Conn=Delta Model=1 kV=4.16   kW=1155  kvar=660
New Load.634a Bus1=634.1     Phases=1 Conn=Wye   Model=1 kV=0.277  kW=160   kvar=110 
New Load.634b Bus1=634.2     Phases=1 Conn=Wye   Model=1 kV=0.277  kW=120   kvar=90 
New Load.634c Bus1=634.3     Phases=1 Conn=Wye   Model=1 kV=0.277  kW=120   kvar=90
New Load.645  Bus1=645.2     Phases=1 Conn=Wye   Model=1 kV=2.4    kW=170   kvar=125 
New Load.646 Bus1=646.2      Phases=1 Conn=Delta Model=2 kV=4.16    kW=230   kvar=132
New Load.692 Bus1=692.3    Phases=1 Conn=Delta Model=5 kV=4.16    kW=170   kvar=151 
New Load.675a Bus1=675.1    Phases=1 Conn=Wye  Model=1 kV=2.4  kW=485   kvar=190
New Load.675b Bus1=675.2    Phases=1 Conn=Wye  Model=1 kV=2.4  kW=68   kvar=60 
New Load.675c Bus1=675.3    Phases=1 Conn=Wye  Model=1 kV=2.4  kW=290   kvar=212
New Load.611 Bus1=611.3      Phases=1 Conn=Wye  Model=5 kV=2.4  kW=170   kvar=80
New Load.652 Bus1=652.1      Phases=1 Conn=Wye  Model=2 kV=2.4  kW=128   kvar=86 

! extra load from msankur repo
New Load.680 Bus1=680.1.2.3  Phases=3 Conn=Wye  Model=2 kV=2.4  kW=30   kvar=15

!LINE DEFINITIONS 
New Line.650632    Phases=3 Bus1=RG60.1.2.3   Bus2=632.1.2.3  LineCode=mtx601 Length=0.3787878787878788 units=mi
New Line.632671    Phases=3 Bus1=632.1.2.3    Bus2=671.1.2.3  LineCode=mtx601 Length=0.3787878787878788  units=mi
New Line.671680    Phases=3 Bus1=671.1.2.3    Bus2=680.1.2.3  LineCode=mtx601 Length=0.1893939393939394 units=mi
New Line.632633    Phases=3 Bus1=632.1.2.3    Bus2=633.1.2.3  LineCode=mtx602 Length=0.0946969696969697  units=mi
New Line.633634    Phases=3 Bus1=633.1.2.3    Bus2=634.1.2.3  LineCode=mtx601 Length=0.00946969696969697  units=mi
New Line.632645    Phases=2 Bus1=632.3.2      Bus2=645.3.2    LineCode=mtx603 Length=0.0946969696969697  units=mi
New Line.645646    Phases=2 Bus1=645.3.2      Bus2=646.3.2    LineCode=mtx603 Length=0.0568181818181818  units=mi
New Line.692675    Phases=3 Bus1=692.1.2.3    Bus2=675.1.2.3  LineCode=mtx606 Length=0.0946969696969697  units=mi
New Line.671692    Phases=3 Bus1=671.1.2.3    Bus2=692.1.2.3  LineCode=mtx601 Length=0.00946969697  units=mi 
New Line.671684    Phases=2 Bus1=671.1.3      Bus2=684.1.3    LineCode=mtx604 Length=0.05681818181818181  units=mi 
New Line.684611    Phases=1 Bus1=684.3        Bus2=611.3      LineCode=mtx605 Length=0.05681818181818181  units=mi 
New Line.684652    Phases=1 Bus1=684.1        Bus2=652.1      LineCode=mtx607 Length=0.15151515151515152  units=mi 



Set Voltagebases=[115, 4.16, .48]